GW 1 21 -1.1680 0 0 1.1680 0 0 0.0050
GW 1000 1 -0.0100 0.0100 0 0.0100 0.0100 0 0.0100
GW 1001 1 0.0100 0.0100 0 0.0100 -0.0100 0 0.0100
GW 1002 1 0.0100 -0.0100 0 -0.0100 -0.0100 0 0.0100
GW 1003 1 -0.0100 -0.0100 0 -0.0100 0.0100 0 0.0100
GW 1004 1 0.0900 0.0100 0 0.1100 0.0100 0 0.0100
GW 1005 1 0.1100 0.0100 0 0.1100 -0.0100 0 0.0100
GW 1006 1 0.1100 -0.0100 0 0.0900 -0.0100 0 0.0100
GW 1007 1 0.0900 -0.0100 0 0.0900 0.0100 0 0.0100