FR 0 1 0 0 216 0
GW 1 1 0.0000 4.4550 0 1.9110 4.4550 0 0.0080
GW 2 1 1.9110 4.4550 0 1.9110 4.2570 0 0.0080
GW 3 1 1.9110 4.2570 0 0.0000 4.2570 0 0.0080
GW 4 1 0.0000 4.2570 0 0.0000 4.0590 0 0.0080
GW 5 1 0.0000 4.0590 0 1.9110 4.0590 0 0.0080
GW 6 1 1.9110 4.0590 0 1.9110 3.8610 0 0.0080
GW 7 1 1.9110 3.8610 0 0.0000 3.8610 0 0.0080
GW 8 1 0.0000 3.8610 0 0.0000 3.6630 0 0.0080
GW 9 1 0.0000 3.6630 0 1.9110 3.6630 0 0.0080
GW 10 1 1.9110 3.6630 0 1.9110 3.4650 0 0.0080
GW 11 1 1.9110 3.4650 0 0.0000 3.4650 0 0.0080
GW 12 1 0.0000 3.4650 0 0.0000 3.2670 0 0.0080
GW 13 1 0.0000 3.2670 0 1.9110 3.2670 0 0.0080
GW 14 1 1.9110 3.2670 0 1.9110 3.0690 0 0.0080
GW 15 1 1.9110 3.0690 0 0.0000 3.0690 0 0.0080
GW 16 1 0.0000 3.0690 0 0.0000 2.8710 0 0.0080
GW 17 1 0.0000 2.8710 0 1.9110 2.8710 0 0.0080
GW 18 1 1.9110 2.8710 0 1.9110 2.6730 0 0.0080
GW 19 1 1.9110 2.6730 0 0.0000 2.6730 0 0.0080
GW 20 1 0.0000 2.6730 0 0.0000 2.4750 0 0.0080
GW 21 1 0.0000 2.4750 0 1.9110 2.4750 0 0.0080
GW 22 1 1.9110 2.4750 0 1.9110 2.2770 0 0.0080
GW 23 1 1.9110 2.2770 0 0.0000 2.2770 0 0.0080
GW 24 1 0.0000 2.2770 0 0.0000 2.0790 0 0.0080
GW 25 1 0.0000 2.0790 0 1.9110 2.0790 0 0.0080
GW 26 1 1.9110 2.0790 0 1.9110 1.8810 0 0.0080
GW 27 1 1.9110 1.8810 0 0.0000 1.8810 0 0.0080
GW 28 1 0.0000 1.8810 0 0.0000 1.6830 0 0.0080
GW 29 1 0.0000 1.6830 0 1.9110 1.6830 0 0.0080
GW 30 1 1.9110 1.6830 0 1.9110 1.4850 0 0.0080
GW 31 1 1.9110 1.4850 0 0.0000 1.4850 0 0.0080
GW 32 1 0.0000 1.4850 0 0.0000 1.2870 0 0.0080
GW 33 1 0.0000 1.2870 0 1.9110 1.2870 0 0.0080
GW 34 1 1.9110 1.2870 0 1.9110 1.0890 0 0.0080
GW 35 1 1.9110 1.0890 0 0.0000 1.0890 0 0.0080
GW 36 1 0.0000 1.0890 0 0.0000 0.8910 0 0.0080
GW 37 1 0.0000 0.8910 0 1.9110 0.8910 0 0.0080
GW 38 1 1.9110 0.8910 0 1.9110 0.6930 0 0.0080
GW 39 1 1.9110 0.6930 0 0.0000 0.6930 0 0.0080
GW 40 1 0.0000 0.6930 0 0.0000 0.4950 0 0.0080
GW 41 1 0.0000 0.4950 0 1.9110 0.4950 0 0.0080
GW 42 1 1.9110 0.4950 0 1.9110 0.2970 0 0.0080
GW 43 1 1.9110 0.2970 0 0.0000 0.2970 0 0.0080
GW 44 1 0.0000 0.2970 0 0.0000 0.0990 0 0.0080
GW 45 1 0.0000 0.0990 0 1.9110 0.0990 0 0.0080
GW 46 1 1.9110 0.0990 0 1.9110 -0.0990 0 0.0080
GW 47 1 1.9110 -0.0990 0 0.0000 -0.0990 0 0.0080
GW 48 1 0.0000 -0.0990 0 0.0000 -0.2970 0 0.0080
GW 49 1 0.0000 -0.2970 0 1.9110 -0.2970 0 0.0080
GW 50 1 1.9110 -0.2970 0 1.9110 -0.4950 0 0.0080
GW 51 1 1.9110 -0.4950 0 0.0000 -0.4950 0 0.0080
GW 52 1 0.0000 -0.4950 0 0.0000 -0.6930 0 0.0080
GW 53 1 0.0000 -0.6930 0 1.9110 -0.6930 0 0.0080
GW 54 1 1.9110 -0.6930 0 1.9110 -0.8910 0 0.0080
GW 55 1 1.9110 -0.8910 0 0.0000 -0.8910 0 0.0080
GW 56 1 0.0000 -0.8910 0 0.0000 -1.0890 0 0.0080
GW 57 1 0.0000 -4.4550 0 1.9110 -4.4550 0 0.0080
GW 58 1 1.9110 -4.4550 0 1.9110 -4.2570 0 0.0080
GW 59 1 1.9110 -4.2570 0 0.0000 -4.2570 0 0.0080
GW 60 1 0.0000 -4.2570 0 0.0000 -4.0590 0 0.0080
GW 61 1 0.0000 -4.0590 0 1.9110 -4.0590 0 0.0080
GW 62 1 1.9110 -4.0590 0 1.9110 -3.8610 0 0.0080
GW 63 1 1.9110 -3.8610 0 0.0000 -3.8610 0 0.0080
GW 64 1 0.0000 -3.8610 0 0.0000 -3.6630 0 0.0080
GW 65 1 0.0000 -3.6630 0 1.9110 -3.6630 0 0.0080
GW 66 1 1.9110 -3.6630 0 1.9110 -3.4650 0 0.0080
GW 67 1 1.9110 -3.4650 0 0.0000 -3.4650 0 0.0080
GW 68 1 0.0000 -3.4650 0 0.0000 -3.2670 0 0.0080
GW 69 1 0.0000 -3.2670 0 1.9110 -3.2670 0 0.0080
GW 70 1 1.9110 -3.2670 0 1.9110 -3.0690 0 0.0080
GW 71 1 1.9110 -3.0690 0 0.0000 -3.0690 0 0.0080
GW 72 1 0.0000 -3.0690 0 0.0000 -2.8710 0 0.0080
GW 73 1 0.0000 -2.8710 0 1.9110 -2.8710 0 0.0080
GW 74 1 1.9110 -2.8710 0 1.9110 -2.6730 0 0.0080
GW 75 1 1.9110 -2.6730 0 0.0000 -2.6730 0 0.0080
GW 76 1 0.0000 -2.6730 0 0.0000 -2.4750 0 0.0080
GW 77 1 0.0000 -2.4750 0 1.9110 -2.4750 0 0.0080
GW 78 1 1.9110 -2.4750 0 1.9110 -2.2770 0 0.0080
GW 79 1 1.9110 -2.2770 0 0.0000 -2.2770 0 0.0080
GW 80 1 0.0000 -2.2770 0 0.0000 -2.0790 0 0.0080
GW 81 1 0.0000 -2.0790 0 1.9110 -2.0790 0 0.0080
GW 82 1 1.9110 -2.0790 0 1.9110 -1.8810 0 0.0080
GW 83 1 1.9110 -1.8810 0 0.0000 -1.8810 0 0.0080
GW 84 1 0.0000 -1.8810 0 0.0000 -1.6830 0 0.0080
GW 85 1 0.0000 -1.6830 0 1.9110 -1.6830 0 0.0080
GW 86 1 1.9110 -1.6830 0 1.9110 -1.4850 0 0.0080
GW 87 1 1.9110 -1.4850 0 0.0000 -1.4850 0 0.0080
GW 88 1 0.0000 -1.4850 0 0.0000 -1.2870 0 0.0080
GW 89 1 0.0000 -1.2870 0 1.9110 -1.2870 0 0.0080
GW 90 1 1.9110 -1.2870 0 1.9110 -1.0890 0 0.0080
GW 91 1 1.9110 -1.0890 0 0.0000 -1.0890 0 0.0080
GW 92 1 0.0000 -1.0890 0 0.0000 -0.8910 0 0.0080
GW 93 1 0.0000 -0.8910 0 1.9110 -0.8910 0 0.0080
GW 94 1 1.9110 -0.8910 0 1.9110 -0.6930 0 0.0080
GW 95 1 1.9110 -0.6930 0 0.0000 -0.6930 0 0.0080
GW 96 1 0.0000 -0.6930 0 0.0000 -0.4950 0 0.0080
GW 97 1 0.0000 -0.4950 0 1.9110 -0.4950 0 0.0080
GW 98 1 1.9110 -0.4950 0 1.9110 -0.2970 0 0.0080
GW 99 1 1.9110 -0.2970 0 0.0000 -0.2970 0 0.0080
GW 100 1 0.0000 -0.2970 0 0.0000 -0.0990 0 0.0080
GW 101 1 0.0000 -0.0990 0 1.9110 -0.0990 0 0.0080
GW 102 1 1.9110 -0.0990 0 1.9110 0.0990 0 0.0080
GW 103 1 1.9110 0.0990 0 0.0000 0.0990 0 0.0080
GW 104 1 0.0000 0.0990 0 0.0000 0.2970 0 0.0080
GW 105 1 0.0000 0.2970 0 1.9110 0.2970 0 0.0080
GW 106 1 1.9110 0.2970 0 1.9110 0.4950 0 0.0080
GW 107 1 1.9110 0.4950 0 0.0000 0.4950 0 0.0080
GW 108 1 0.0000 0.4950 0 0.0000 0.6930 0 0.0080
GW 109 1 0.0000 0.6930 0 1.9110 0.6930 0 0.0080
GW 110 1 1.9110 0.6930 0 1.9110 0.8910 0 0.0080
GW 111 1 1.9110 0.8910 0 0.0000 0.8910 0 0.0080
GW 112 1 0.0000 0.8910 0 0.0000 1.0890 0 0.0080
GW 113 1 0 0 0 0 0 0 0.0080
EX 0 1 1 0 1.0
XQ
EN