FR 0 1 0 0 2600 0
GW 1 1 -1.8713 -0.3026 0 1.8713 -0.3026 0 0.0394
GW 2 1 1.8319 -0.3026 0 1.8326 -0.2949 0 0.0394
GW 3 1 1.8326 -0.2949 0 1.8349 -0.2875 0 0.0394
GW 4 1 1.8349 -0.2875 0 1.8385 -0.2807 0 0.0394
GW 5 1 1.8385 -0.2807 0 1.8434 -0.2748 0 0.0394
GW 6 1 1.8434 -0.2748 0 1.8494 -0.2699 0 0.0394
GW 7 1 1.8494 -0.2699 0 1.8562 -0.2662 0 0.0394
GW 8 1 1.8562 -0.2662 0 1.8636 -0.2640 0 0.0394
GW 9 1 1.8636 -0.2640 0 1.8713 -0.2632 0 0.0394
GW 10 1 1.8713 0.3026 0 -1.8713 0.3026 0 0.0394
GW 11 1 0.0000 -0.3026 0 -1.8713 -0.3026 0 0.0394
GW 1001 1 -1.8713 -0.3013 0 1.8713 -0.3013 0 0.0197
GW 1002 1 1.8516 -0.3013 0 1.8520 -0.2975 0 0.0197
GW 1003 1 1.8520 -0.2975 0 1.8531 -0.2938 0 0.0197
GW 1004 1 1.8531 -0.2938 0 1.8549 -0.2904 0 0.0197
GW 1005 1 1.8549 -0.2904 0 1.8573 -0.2874 0 0.0197
GW 1006 1 1.8573 -0.2874 0 1.8603 -0.2849 0 0.0197
GW 1007 1 1.8603 -0.2849 0 1.8637 -0.2831 0 0.0197
GW 1008 1 1.8637 -0.2831 0 1.8674 -0.2820 0 0.0197
GW 1009 1 1.8674 -0.2820 0 1.8713 -0.2816 0 0.0197
GW 1010 1 1.8713 0.3013 0 -1.8713 0.3013 0 0.0197
GW 1011 1 0.0000 -0.3013 0 -1.8713 -0.3013 0 0.0197
EX 0 1 1 0 1.0
XQ
EN