FR 0 1 0 0 200 0
GW 1 1 -1.8713 -0.6842 0 1.8713 -0.6842 0 0.0315
GW 2 1 1.8319 -0.6842 0 1.8326 -0.6766 0 0.0315
GW 3 1 1.8326 -0.6766 0 1.8349 -0.6692 0 0.0315
GW 4 1 1.8349 -0.6692 0 1.8385 -0.6624 0 0.0315
GW 5 1 1.8385 -0.6624 0 1.8434 -0.6564 0 0.0315
GW 6 1 1.8434 -0.6564 0 1.8494 -0.6515 0 0.0315
GW 7 1 1.8494 -0.6515 0 1.8562 -0.6479 0 0.0315
GW 8 1 1.8562 -0.6479 0 1.8636 -0.6456 0 0.0315
GW 9 1 1.8636 -0.6456 0 1.8713 -0.6449 0 0.0315
GW 10 1 1.8713 -0.4887 0 -1.8713 -0.4887 0 0.0315
GW 11 1 -1.8319 -0.4887 0 -1.8326 -0.4964 0 0.0315
GW 12 1 -1.8326 -0.4964 0 -1.8349 -0.5038 0 0.0315
GW 13 1 -1.8349 -0.5038 0 -1.8385 -0.5106 0 0.0315
GW 14 1 -1.8385 -0.5106 0 -1.8434 -0.5166 0 0.0315
GW 15 1 -1.8434 -0.5166 0 -1.8494 -0.5215 0 0.0315
GW 16 1 -1.8494 -0.5215 0 -1.8562 -0.5251 0 0.0315
GW 17 1 -1.8562 -0.5251 0 -1.8636 -0.5274 0 0.0315
GW 18 1 -1.8636 -0.5274 0 -1.8713 -0.5281 0 0.0315
GW 19 1 -1.8713 -0.6842 0 1.8713 -0.6842 0 0.0315
GW 20 1 1.8319 -0.6842 0 1.8326 -0.6766 0 0.0315
GW 21 1 1.8326 -0.6766 0 1.8349 -0.6692 0 0.0315
GW 22 1 1.8349 -0.6692 0 1.8385 -0.6624 0 0.0315
GW 23 1 1.8385 -0.6624 0 1.8434 -0.6564 0 0.0315
GW 24 1 1.8434 -0.6564 0 1.8494 -0.6515 0 0.0315
GW 25 1 1.8494 -0.6515 0 1.8562 -0.6479 0 0.0315
GW 26 1 1.8562 -0.6479 0 1.8636 -0.6456 0 0.0315
GW 27 1 1.8636 -0.6456 0 1.8713 -0.6449 0 0.0315
GW 28 1 1.8713 -0.4887 0 -1.8713 -0.4887 0 0.0315
GW 29 1 -1.8319 -0.4887 0 -1.8326 -0.4964 0 0.0315
GW 30 1 -1.8326 -0.4964 0 -1.8349 -0.5038 0 0.0315
GW 31 1 -1.8349 -0.5038 0 -1.8385 -0.5106 0 0.0315
GW 32 1 -1.8385 -0.5106 0 -1.8434 -0.5166 0 0.0315
GW 33 1 -1.8434 -0.5166 0 -1.8494 -0.5215 0 0.0315
GW 34 1 -1.8494 -0.5215 0 -1.8562 -0.5251 0 0.0315
GW 35 1 -1.8562 -0.5251 0 -1.8636 -0.5274 0 0.0315
GW 36 1 -1.8636 -0.5274 0 -1.8713 -0.5281 0 0.0315
GW 37 1 -1.8713 -0.6842 0 1.8713 -0.6842 0 0.0315
GW 38 1 1.8319 -0.6842 0 1.8326 -0.6766 0 0.0315
GW 39 1 1.8326 -0.6766 0 1.8349 -0.6692 0 0.0315
GW 40 1 1.8349 -0.6692 0 1.8385 -0.6624 0 0.0315
GW 41 1 1.8385 -0.6624 0 1.8434 -0.6564 0 0.0315
GW 42 1 1.8434 -0.6564 0 1.8494 -0.6515 0 0.0315
GW 43 1 1.8494 -0.6515 0 1.8562 -0.6479 0 0.0315
GW 44 1 1.8562 -0.6479 0 1.8636 -0.6456 0 0.0315
GW 45 1 1.8636 -0.6456 0 1.8713 -0.6449 0 0.0315
GW 46 1 1.8713 -0.4887 0 -1.8713 -0.4887 0 0.0315
GW 47 1 -1.8319 -0.4887 0 -1.8326 -0.4964 0 0.0315
GW 48 1 -1.8326 -0.4964 0 -1.8349 -0.5038 0 0.0315
GW 49 1 -1.8349 -0.5038 0 -1.8385 -0.5106 0 0.0315
GW 50 1 -1.8385 -0.5106 0 -1.8434 -0.5166 0 0.0315
GW 51 1 -1.8434 -0.5166 0 -1.8494 -0.5215 0 0.0315
GW 52 1 -1.8494 -0.5215 0 -1.8562 -0.5251 0 0.0315
GW 53 1 -1.8562 -0.5251 0 -1.8636 -0.5274 0 0.0315
GW 54 1 -1.8636 -0.5274 0 -1.8713 -0.5281 0 0.0315
GW 55 1 -1.8713 -0.6842 0 1.8713 -0.6842 0 0.0315
GW 56 1 1.8319 -0.6842 0 1.8326 -0.6766 0 0.0315
GW 57 1 1.8326 -0.6766 0 1.8349 -0.6692 0 0.0315
GW 58 1 1.8349 -0.6692 0 1.8385 -0.6624 0 0.0315
GW 59 1 1.8385 -0.6624 0 1.8434 -0.6564 0 0.0315
GW 60 1 1.8434 -0.6564 0 1.8494 -0.6515 0 0.0315
GW 61 1 1.8494 -0.6515 0 1.8562 -0.6479 0 0.0315
GW 62 1 1.8562 -0.6479 0 1.8636 -0.6456 0 0.0315
GW 63 1 1.8636 -0.6456 0 1.8713 -0.6449 0 0.0315
GW 64 1 1.8713 -0.4887 0 -1.8713 -0.4887 0 0.0315
GW 65 1 0.0000 -0.6842 0 -1.8713 -0.6842 0 0.0315
GW 1001 1 -1.8713 -0.6741 0 1.8713 -0.6741 0 0.0315
GW 1002 1 1.8319 -0.6741 0 1.8326 -0.6664 0 0.0315
GW 1003 1 1.8326 -0.6664 0 1.8349 -0.6590 0 0.0315
GW 1004 1 1.8349 -0.6590 0 1.8385 -0.6522 0 0.0315
GW 1005 1 1.8385 -0.6522 0 1.8434 -0.6462 0 0.0315
GW 1006 1 1.8434 -0.6462 0 1.8494 -0.6413 0 0.0315
GW 1007 1 1.8494 -0.6413 0 1.8562 -0.6377 0 0.0315
GW 1008 1 1.8562 -0.6377 0 1.8636 -0.6354 0 0.0315
GW 1009 1 1.8636 -0.6354 0 1.8713 -0.6347 0 0.0315
GW 1010 1 1.8713 -0.4494 0 -1.8713 -0.4494 0 0.0315
GW 1011 1 -1.8319 -0.4494 0 -1.8326 -0.4571 0 0.0315
GW 1012 1 -1.8326 -0.4571 0 -1.8349 -0.4644 0 0.0315
GW 1013 1 -1.8349 -0.4644 0 -1.8385 -0.4712 0 0.0315
GW 1014 1 -1.8385 -0.4712 0 -1.8434 -0.4772 0 0.0315
GW 1015 1 -1.8434 -0.4772 0 -1.8494 -0.4821 0 0.0315
GW 1016 1 -1.8494 -0.4821 0 -1.8562 -0.4857 0 0.0315
GW 1017 1 -1.8562 -0.4857 0 -1.8636 -0.4880 0 0.0315
GW 1018 1 -1.8636 -0.4880 0 -1.8713 -0.4887 0 0.0315
GW 1019 1 -1.8713 -0.6741 0 1.8713 -0.6741 0 0.0315
GW 1020 1 1.8319 -0.6741 0 1.8326 -0.6664 0 0.0315
GW 1021 1 1.8326 -0.6664 0 1.8349 -0.6590 0 0.0315
GW 1022 1 1.8349 -0.6590 0 1.8385 -0.6522 0 0.0315
GW 1023 1 1.8385 -0.6522 0 1.8434 -0.6462 0 0.0315
GW 1024 1 1.8434 -0.6462 0 1.8494 -0.6413 0 0.0315
GW 1025 1 1.8494 -0.6413 0 1.8562 -0.6377 0 0.0315
GW 1026 1 1.8562 -0.6377 0 1.8636 -0.6354 0 0.0315
GW 1027 1 1.8636 -0.6354 0 1.8713 -0.6347 0 0.0315
GW 1028 1 1.8713 -0.4494 0 -1.8713 -0.4494 0 0.0315
GW 1029 1 -1.8319 -0.4494 0 -1.8326 -0.4571 0 0.0315
GW 1030 1 -1.8326 -0.4571 0 -1.8349 -0.4644 0 0.0315
GW 1031 1 -1.8349 -0.4644 0 -1.8385 -0.4712 0 0.0315
GW 1032 1 -1.8385 -0.4712 0 -1.8434 -0.4772 0 0.0315
GW 1033 1 -1.8434 -0.4772 0 -1.8494 -0.4821 0 0.0315
GW 1034 1 -1.8494 -0.4821 0 -1.8562 -0.4857 0 0.0315
GW 1035 1 -1.8562 -0.4857 0 -1.8636 -0.4880 0 0.0315
GW 1036 1 -1.8636 -0.4880 0 -1.8713 -0.4887 0 0.0315
GW 1037 1 -1.8713 -0.6741 0 1.8713 -0.6741 0 0.0315
GW 1038 1 1.8319 -0.6741 0 1.8326 -0.6664 0 0.0315
GW 1039 1 1.8326 -0.6664 0 1.8349 -0.6590 0 0.0315
GW 1040 1 1.8349 -0.6590 0 1.8385 -0.6522 0 0.0315
GW 1041 1 1.8385 -0.6522 0 1.8434 -0.6462 0 0.0315
GW 1042 1 1.8434 -0.6462 0 1.8494 -0.6413 0 0.0315
GW 1043 1 1.8494 -0.6413 0 1.8562 -0.6377 0 0.0315
GW 1044 1 1.8562 -0.6377 0 1.8636 -0.6354 0 0.0315
GW 1045 1 1.8636 -0.6354 0 1.8713 -0.6347 0 0.0315
GW 1046 1 1.8713 -0.4494 0 -1.8713 -0.4494 0 0.0315
GW 1047 1 -1.8319 -0.4494 0 -1.8326 -0.4571 0 0.0315
GW 1048 1 -1.8326 -0.4571 0 -1.8349 -0.4644 0 0.0315
GW 1049 1 -1.8349 -0.4644 0 -1.8385 -0.4712 0 0.0315
GW 1050 1 -1.8385 -0.4712 0 -1.8434 -0.4772 0 0.0315
GW 1051 1 -1.8434 -0.4772 0 -1.8494 -0.4821 0 0.0315
GW 1052 1 -1.8494 -0.4821 0 -1.8562 -0.4857 0 0.0315
GW 1053 1 -1.8562 -0.4857 0 -1.8636 -0.4880 0 0.0315
GW 1054 1 -1.8636 -0.4880 0 -1.8713 -0.4887 0 0.0315
GW 1055 1 -1.8713 -0.6741 0 1.8713 -0.6741 0 0.0315
GW 1056 1 0.0000 -0.6741 0 -1.8713 -0.6741 0 0.0315
GW 2001 1 -1.8713 -0.6347 0 1.8713 -0.6347 0 0.0315
GW 2002 1 1.8319 -0.6347 0 1.8326 -0.6270 0 0.0315
GW 2003 1 1.8326 -0.6270 0 1.8349 -0.6196 0 0.0315
GW 2004 1 1.8349 -0.6196 0 1.8385 -0.6128 0 0.0315
GW 2005 1 1.8385 -0.6128 0 1.8434 -0.6068 0 0.0315
GW 2006 1 1.8434 -0.6068 0 1.8494 -0.6020 0 0.0315
GW 2007 1 1.8494 -0.6020 0 1.8562 -0.5983 0 0.0315
GW 2008 1 1.8562 -0.5983 0 1.8636 -0.5961 0 0.0315
GW 2009 1 1.8636 -0.5961 0 1.8713 -0.5953 0 0.0315
GW 2010 1 1.8713 -0.3808 0 -1.8713 -0.3808 0 0.0315
GW 2011 1 -1.8319 -0.3808 0 -1.8326 -0.3885 0 0.0315
GW 2012 1 -1.8326 -0.3885 0 -1.8349 -0.3959 0 0.0315
GW 2013 1 -1.8349 -0.3959 0 -1.8385 -0.4027 0 0.0315
GW 2014 1 -1.8385 -0.4027 0 -1.8434 -0.4087 0 0.0315
GW 2015 1 -1.8434 -0.4087 0 -1.8494 -0.4135 0 0.0315
GW 2016 1 -1.8494 -0.4135 0 -1.8562 -0.4172 0 0.0315
GW 2017 1 -1.8562 -0.4172 0 -1.8636 -0.4194 0 0.0315
GW 2018 1 -1.8636 -0.4194 0 -1.8713 -0.4202 0 0.0315
GW 2019 1 -1.8713 -0.6347 0 1.8713 -0.6347 0 0.0315
GW 2020 1 1.8319 -0.6347 0 1.8326 -0.6270 0 0.0315
GW 2021 1 1.8326 -0.6270 0 1.8349 -0.6196 0 0.0315
GW 2022 1 1.8349 -0.6196 0 1.8385 -0.6128 0 0.0315
GW 2023 1 1.8385 -0.6128 0 1.8434 -0.6068 0 0.0315
GW 2024 1 1.8434 -0.6068 0 1.8494 -0.6020 0 0.0315
GW 2025 1 1.8494 -0.6020 0 1.8562 -0.5983 0 0.0315
GW 2026 1 1.8562 -0.5983 0 1.8636 -0.5961 0 0.0315
GW 2027 1 1.8636 -0.5961 0 1.8713 -0.5953 0 0.0315
GW 2028 1 1.8713 -0.3808 0 -1.8713 -0.3808 0 0.0315
GW 2029 1 -1.8319 -0.3808 0 -1.8326 -0.3885 0 0.0315
GW 2030 1 -1.8326 -0.3885 0 -1.8349 -0.3959 0 0.0315
GW 2031 1 -1.8349 -0.3959 0 -1.8385 -0.4027 0 0.0315
GW 2032 1 -1.8385 -0.4027 0 -1.8434 -0.4087 0 0.0315
GW 2033 1 -1.8434 -0.4087 0 -1.8494 -0.4135 0 0.0315
GW 2034 1 -1.8494 -0.4135 0 -1.8562 -0.4172 0 0.0315
GW 2035 1 -1.8562 -0.4172 0 -1.8636 -0.4194 0 0.0315
GW 2036 1 -1.8636 -0.4194 0 -1.8713 -0.4202 0 0.0315
GW 2037 1 -1.8713 -0.6347 0 1.8713 -0.6347 0 0.0315
GW 2038 1 1.8319 -0.6347 0 1.8326 -0.6270 0 0.0315
GW 2039 1 1.8326 -0.6270 0 1.8349 -0.6196 0 0.0315
GW 2040 1 1.8349 -0.6196 0 1.8385 -0.6128 0 0.0315
GW 2041 1 1.8385 -0.6128 0 1.8434 -0.6068 0 0.0315
GW 2042 1 1.8434 -0.6068 0 1.8494 -0.6020 0 0.0315
GW 2043 1 1.8494 -0.6020 0 1.8562 -0.5983 0 0.0315
GW 2044 1 1.8562 -0.5983 0 1.8636 -0.5961 0 0.0315
GW 2045 1 1.8636 -0.5961 0 1.8713 -0.5953 0 0.0315
GW 2046 1 1.8713 -0.3808 0 -1.8713 -0.3808 0 0.0315
GW 2047 1 -1.8713 -0.3808 0 -0.3558 -0.3808 0 0.0315
GW 2048 1 0.0000 -0.6347 0 -1.8713 -0.6347 0 0.0315
EX 0 1 1 0 1.0
XQ
EN