FR 0 1 0 0 2437 0
GW 1 1 0.0000 0.8550 0 1.9110 0.8550 0 0.0080
GW 2 1 1.9110 0.8550 0 1.9110 0.8170 0 0.0080
GW 3 1 1.9110 0.8170 0 0.0000 0.8170 0 0.0080
GW 4 1 0.0000 0.8170 0 0.0000 0.7790 0 0.0080
GW 5 1 0.0000 0.7790 0 1.9110 0.7790 0 0.0080
GW 6 1 1.9110 0.7790 0 1.9110 0.7410 0 0.0080
GW 7 1 0.0000 -0.8550 0 1.9110 -0.8550 0 0.0080
GW 8 1 1.9110 -0.8550 0 1.9110 -0.8170 0 0.0080
GW 9 1 1.9110 -0.8170 0 0.0000 -0.8170 0 0.0080
GW 10 1 0.0000 -0.8170 0 0.0000 -0.7790 0 0.0080
GW 11 1 0.0000 -0.7790 0 1.9110 -0.7790 0 0.0080
GW 12 1 1.9110 -0.7790 0 1.9110 -0.7410 0 0.0080
GW 13 1 0 0 0 0 0 0 0.0080
EX 0 1 1 0 1.0
XQ
EN