FR 0 1 0 0 3500 0
GW 1 1 -1.8713 -0.3010 0 1.8713 -0.3010 0 0.0157
GW 2 1 1.8516 -0.3010 0 1.8520 -0.2972 0 0.0157
GW 3 1 1.8520 -0.2972 0 1.8531 -0.2935 0 0.0157
GW 4 1 1.8531 -0.2935 0 1.8549 -0.2901 0 0.0157
GW 5 1 1.8549 -0.2901 0 1.8573 -0.2871 0 0.0157
GW 6 1 1.8573 -0.2871 0 1.8603 -0.2847 0 0.0157
GW 7 1 1.8603 -0.2847 0 1.8637 -0.2828 0 0.0157
GW 8 1 1.8637 -0.2828 0 1.8674 -0.2817 0 0.0157
GW 9 1 1.8674 -0.2817 0 1.8713 -0.2814 0 0.0157
GW 10 1 1.8713 0.3010 0 -1.8713 0.3010 0 0.0157
GW 11 1 0.0000 -0.3010 0 -1.8713 -0.3010 0 0.0157
GW 1001 1 -1.8713 -0.3010 0 1.8713 -0.3010 0 0.0157
GW 1002 1 1.8516 -0.3010 0 1.8520 -0.2972 0 0.0157
GW 1003 1 1.8520 -0.2972 0 1.8531 -0.2935 0 0.0157
GW 1004 1 1.8531 -0.2935 0 1.8549 -0.2901 0 0.0157
GW 1005 1 1.8549 -0.2901 0 1.8573 -0.2871 0 0.0157
GW 1006 1 1.8573 -0.2871 0 1.8603 -0.2847 0 0.0157
GW 1007 1 1.8603 -0.2847 0 1.8637 -0.2828 0 0.0157
GW 1008 1 1.8637 -0.2828 0 1.8674 -0.2817 0 0.0157
GW 1009 1 1.8674 -0.2817 0 1.8713 -0.2814 0 0.0157
GW 1010 1 1.8713 0.3010 0 -1.8713 0.3010 0 0.0157
GW 1011 1 0.0000 -0.3010 0 -1.8713 -0.3010 0 0.0157
GW 2001 1 -1.8713 -0.3010 0 1.8713 -0.3010 0 0.0157
GW 2002 1 1.8516 -0.3010 0 1.8520 -0.2972 0 0.0157
GW 2003 1 1.8520 -0.2972 0 1.8531 -0.2935 0 0.0157
GW 2004 1 1.8531 -0.2935 0 1.8549 -0.2901 0 0.0157
GW 2005 1 1.8549 -0.2901 0 1.8573 -0.2871 0 0.0157
GW 2006 1 1.8573 -0.2871 0 1.8603 -0.2847 0 0.0157
GW 2007 1 1.8603 -0.2847 0 1.8637 -0.2828 0 0.0157
GW 2008 1 1.8637 -0.2828 0 1.8674 -0.2817 0 0.0157
GW 2009 1 1.8674 -0.2817 0 1.8713 -0.2814 0 0.0157
GW 2010 1 1.8713 0.3010 0 -1.8713 0.3010 0 0.0157
GW 2011 1 0.0000 -0.3010 0 -1.8713 -0.3010 0 0.0157
EX 0 1 1 0 1.0
XQ
EN