FR 0 1 0 0 72 0
GW 1 11 -1.6 0.0 0 -0.005 0.0 0 0.0050
GW 2 11 0.005 0.0 0 1.6 0.0 0 0.0050
GW 101 11 -1.6 -0.75 0 -0.005 -0.75 0 0.0050
GW 102 11 0.005 -0.75 0 1.6 -0.75 0 0.0050
GW 201 11 -1.6 -1.5 0 -0.005 -1.5 0 0.0050
GW 202 11 0.005 -1.5 0 1.6 -1.5 0 0.0050
EX 0 1 1 0 1.0
XQ
EN