FR 0 1 0 0 174 0
GW 1 1 0.0000 0.0000 0 1.7100 0.0000 0 0.0315
GW 2 1 1.7100 0.0000 0 1.7100 0.0945 0 0.0315
GW 3 1 1.7100 0.0945 0 0.0000 0.0945 0 0.0315
GW 4 1 0.0000 0.0945 0 0.0000 0.1890 0 0.0315
GW 5 1 0.0000 0.1890 0 1.7100 0.1890 0 0.0315
GW 6 1 1.7100 0.1890 0 1.7100 0.2835 0 0.0315
GW 7 1 1.7100 0.2835 0 0.0000 0.2835 0 0.0315
GW 8 1 0.0000 0.2835 0 0.0000 0.3780 0 0.0315
GW 9 1 0.0000 0.3780 0 1.7100 0.3780 0 0.0315
GW 10 1 1.7100 0.3780 0 1.7100 0.4724 0 0.0315
GW 11 1 1.7100 0.4724 0 0.0000 0.4724 0 0.0315
GW 12 1 0.0000 0.4724 0 0.0000 0.5669 0 0.0315
GW 13 1 0.0000 0.5669 0 1.7100 0.5669 0 0.0315
GW 14 1 1.7100 0.5669 0 1.7100 0.6614 0 0.0315
GW 15 1 1.7100 0.6614 0 0.0000 0.6614 0 0.0315
GW 16 1 0.0000 0.6614 0 0.0000 0.7559 0 0.0315
GW 17 1 0.0000 0.7559 0 1.7100 0.7559 0 0.0315
GW 18 1 0.0000 0.0000 0 1.7100 0.0000 0 0.0315
GW 19 1 1.7100 0.0000 0 1.7100 -0.0945 0 0.0315
GW 20 1 1.7100 -0.0945 0 0.0000 -0.0945 0 0.0315
GW 21 1 0.0000 -0.0945 0 0.0000 -0.1890 0 0.0315
GW 22 1 0.0000 -0.1890 0 1.7100 -0.1890 0 0.0315
GW 23 1 1.7100 -0.1890 0 1.7100 -0.2835 0 0.0315
GW 24 1 1.7100 -0.2835 0 0.0000 -0.2835 0 0.0315
GW 25 1 0.0000 -0.2835 0 0.0000 -0.3780 0 0.0315
GW 26 1 0.0000 -0.3780 0 1.7100 -0.3780 0 0.0315
GW 27 1 1.7100 -0.3780 0 1.7100 -0.4724 0 0.0315
GW 28 1 1.7100 -0.4724 0 0.0000 -0.4724 0 0.0315
GW 29 1 0.0000 -0.4724 0 0.0000 -0.5669 0 0.0315
GW 30 1 0.0000 -0.5669 0 1.7100 -0.5669 0 0.0315
GW 31 1 1.7100 -0.5669 0 1.7100 -0.6614 0 0.0315
GW 32 1 1.7100 -0.6614 0 0.0000 -0.6614 0 0.0315
GW 33 1 0.0000 -0.6614 0 0.0000 -0.7559 0 0.0315
GW 34 1 0.0000 -0.7559 0 1.7100 -0.7559 0 0.0315
GW 35 1 0 0 0 0 0 0 0.0315
GW 1001 1 0.0000 0.0000 0 1.7100 0.0000 0 0.0315
GW 1002 1 1.7100 0.0000 0 1.7100 0.0945 0 0.0315
GW 1003 1 1.7100 0.0945 0 0.0000 0.0945 0 0.0315
GW 1004 1 0.0000 0.0945 0 0.0000 0.1890 0 0.0315
GW 1005 1 0.0000 0.1890 0 1.7100 0.1890 0 0.0315
GW 1006 1 1.7100 0.1890 0 1.7100 0.2835 0 0.0315
GW 1007 1 1.7100 0.2835 0 0.0000 0.2835 0 0.0315
GW 1008 1 0.0000 0.2835 0 0.0000 0.3780 0 0.0315
GW 1009 1 0.0000 0.3780 0 1.7100 0.3780 0 0.0315
GW 1010 1 1.7100 0.3780 0 1.7100 0.4724 0 0.0315
GW 1011 1 1.7100 0.4724 0 0.0000 0.4724 0 0.0315
GW 1012 1 0.0000 0.4724 0 0.0000 0.5669 0 0.0315
GW 1013 1 0.0000 0.5669 0 1.7100 0.5669 0 0.0315
GW 1014 1 1.7100 0.5669 0 1.7100 0.6614 0 0.0315
GW 1015 1 1.7100 0.6614 0 0.0000 0.6614 0 0.0315
GW 1016 1 0.0000 0.0000 0 1.7100 0.0000 0 0.0315
GW 1017 1 1.7100 0.0000 0 1.7100 -0.0945 0 0.0315
GW 1018 1 1.7100 -0.0945 0 0.0000 -0.0945 0 0.0315
GW 1019 1 0.0000 -0.0945 0 0.0000 -0.1890 0 0.0315
GW 1020 1 0.0000 -0.1890 0 1.7100 -0.1890 0 0.0315
GW 1021 1 1.7100 -0.1890 0 1.7100 -0.2835 0 0.0315
GW 1022 1 1.7100 -0.2835 0 0.0000 -0.2835 0 0.0315
GW 1023 1 0.0000 -0.2835 0 0.0000 -0.3780 0 0.0315
GW 1024 1 0.0000 -0.3780 0 1.7100 -0.3780 0 0.0315
GW 1025 1 1.7100 -0.3780 0 1.7100 -0.4724 0 0.0315
GW 1026 1 1.7100 -0.4724 0 0.0000 -0.4724 0 0.0315
GW 1027 1 0.0000 -0.4724 0 0.0000 -0.5669 0 0.0315
GW 1028 1 0.0000 -0.5669 0 1.7100 -0.5669 0 0.0315
GW 1029 1 1.7100 -0.5669 0 1.7100 -0.6614 0 0.0315
GW 1030 1 1.7100 -0.6614 0 0.0000 -0.6614 0 0.0315
GW 1031 1 0 0 0 0 0 0 0.0315
GW 2001 1 0.0000 0.0000 0 1.7100 0.0000 0 0.0315
GW 2002 1 1.7100 0.0000 0 1.7100 0.0945 0 0.0315
GW 2003 1 1.7100 0.0945 0 0.0000 0.0945 0 0.0315
GW 2004 1 0.0000 0.0945 0 0.0000 0.1890 0 0.0315
GW 2005 1 0.0000 0.1890 0 1.7100 0.1890 0 0.0315
GW 2006 1 1.7100 0.1890 0 1.7100 0.2835 0 0.0315
GW 2007 1 1.7100 0.2835 0 0.0000 0.2835 0 0.0315
GW 2008 1 0.0000 0.2835 0 0.0000 0.3780 0 0.0315
GW 2009 1 0.0000 0.3780 0 1.7100 0.3780 0 0.0315
GW 2010 1 1.7100 0.3780 0 1.7100 0.4724 0 0.0315
GW 2011 1 1.7100 0.4724 0 0.0000 0.4724 0 0.0315
GW 2012 1 0.0000 0.4724 0 0.0000 0.5669 0 0.0315
GW 2013 1 0.0000 0.5669 0 1.7100 0.5669 0 0.0315
GW 2014 1 0.0000 0.0000 0 1.7100 0.0000 0 0.0315
GW 2015 1 1.7100 0.0000 0 1.7100 -0.0945 0 0.0315
GW 2016 1 1.7100 -0.0945 0 0.0000 -0.0945 0 0.0315
GW 2017 1 0.0000 -0.0945 0 0.0000 -0.1890 0 0.0315
GW 2018 1 0.0000 -0.1890 0 1.7100 -0.1890 0 0.0315
GW 2019 1 1.7100 -0.1890 0 1.7100 -0.2835 0 0.0315
GW 2020 1 1.7100 -0.2835 0 0.0000 -0.2835 0 0.0315
GW 2021 1 0.0000 -0.2835 0 0.0000 -0.3780 0 0.0315
GW 2022 1 0.0000 -0.3780 0 1.7100 -0.3780 0 0.0315
GW 2023 1 1.7100 -0.3780 0 1.7100 -0.4724 0 0.0315
GW 2024 1 1.7100 -0.4724 0 0.0000 -0.4724 0 0.0315
GW 2025 1 0.0000 -0.4724 0 0.0000 -0.5669 0 0.0315
GW 2026 1 0.0000 -0.5669 0 1.7100 -0.5669 0 0.0315
GW 2027 1 0 0 0 0 0 0 0.0315
EX 0 1 1 0 1.0
XQ
EN