FR 0 1 0 0 216 0
GW 1 1 0.0000 3.5550 0 3.8710 3.5550 0 0.0080
GW 2 1 3.8710 3.5550 0 3.8710 3.3970 0 0.0080
GW 3 1 3.8710 3.3970 0 0.0000 3.3970 0 0.0080
GW 4 1 0.0000 3.3970 0 0.0000 3.2390 0 0.0080
GW 5 1 0.0000 3.2390 0 3.8710 3.2390 0 0.0080
GW 6 1 3.8710 3.2390 0 3.8710 3.0810 0 0.0080
GW 7 1 3.8710 3.0810 0 0.0000 3.0810 0 0.0080
GW 8 1 0.0000 3.0810 0 0.0000 2.9230 0 0.0080
GW 9 1 0.0000 2.9230 0 3.8710 2.9230 0 0.0080
GW 10 1 3.8710 2.9230 0 3.8710 2.7650 0 0.0080
GW 11 1 3.8710 2.7650 0 0.0000 2.7650 0 0.0080
GW 12 1 0.0000 2.7650 0 0.0000 2.6070 0 0.0080
GW 13 1 0.0000 2.6070 0 3.8710 2.6070 0 0.0080
GW 14 1 3.8710 2.6070 0 3.8710 2.4490 0 0.0080
GW 15 1 3.8710 2.4490 0 0.0000 2.4490 0 0.0080
GW 16 1 0.0000 2.4490 0 0.0000 2.2910 0 0.0080
GW 17 1 0.0000 2.2910 0 3.8710 2.2910 0 0.0080
GW 18 1 3.8710 2.2910 0 3.8710 2.1330 0 0.0080
GW 19 1 3.8710 2.1330 0 0.0000 2.1330 0 0.0080
GW 20 1 0.0000 2.1330 0 0.0000 1.9750 0 0.0080
GW 21 1 0.0000 1.9750 0 3.8710 1.9750 0 0.0080
GW 22 1 3.8710 1.9750 0 3.8710 1.8170 0 0.0080
GW 23 1 3.8710 1.8170 0 0.0000 1.8170 0 0.0080
GW 24 1 0.0000 1.8170 0 0.0000 1.6590 0 0.0080
GW 25 1 0.0000 1.6590 0 3.8710 1.6590 0 0.0080
GW 26 1 3.8710 1.6590 0 3.8710 1.5010 0 0.0080
GW 27 1 3.8710 1.5010 0 0.0000 1.5010 0 0.0080
GW 28 1 0.0000 1.5010 0 0.0000 1.3430 0 0.0080
GW 29 1 0.0000 1.3430 0 3.8710 1.3430 0 0.0080
GW 30 1 3.8710 1.3430 0 3.8710 1.1850 0 0.0080
GW 31 1 0.0000 -3.5550 0 3.8710 -3.5550 0 0.0080
GW 32 1 3.8710 -3.5550 0 3.8710 -3.3970 0 0.0080
GW 33 1 3.8710 -3.3970 0 0.0000 -3.3970 0 0.0080
GW 34 1 0.0000 -3.3970 0 0.0000 -3.2390 0 0.0080
GW 35 1 0.0000 -3.2390 0 3.8710 -3.2390 0 0.0080
GW 36 1 3.8710 -3.2390 0 3.8710 -3.0810 0 0.0080
GW 37 1 3.8710 -3.0810 0 0.0000 -3.0810 0 0.0080
GW 38 1 0.0000 -3.0810 0 0.0000 -2.9230 0 0.0080
GW 39 1 0.0000 -2.9230 0 3.8710 -2.9230 0 0.0080
GW 40 1 3.8710 -2.9230 0 3.8710 -2.7650 0 0.0080
GW 41 1 3.8710 -2.7650 0 0.0000 -2.7650 0 0.0080
GW 42 1 0.0000 -2.7650 0 0.0000 -2.6070 0 0.0080
GW 43 1 0.0000 -2.6070 0 3.8710 -2.6070 0 0.0080
GW 44 1 3.8710 -2.6070 0 3.8710 -2.4490 0 0.0080
GW 45 1 3.8710 -2.4490 0 0.0000 -2.4490 0 0.0080
GW 46 1 0.0000 -2.4490 0 0.0000 -2.2910 0 0.0080
GW 47 1 0.0000 -2.2910 0 3.8710 -2.2910 0 0.0080
GW 48 1 3.8710 -2.2910 0 3.8710 -2.1330 0 0.0080
GW 49 1 3.8710 -2.1330 0 0.0000 -2.1330 0 0.0080
GW 50 1 0.0000 -2.1330 0 0.0000 -1.9750 0 0.0080
GW 51 1 0.0000 -1.9750 0 3.8710 -1.9750 0 0.0080
GW 52 1 3.8710 -1.9750 0 3.8710 -1.8170 0 0.0080
GW 53 1 3.8710 -1.8170 0 0.0000 -1.8170 0 0.0080
GW 54 1 0.0000 -1.8170 0 0.0000 -1.6590 0 0.0080
GW 55 1 0.0000 -1.6590 0 3.8710 -1.6590 0 0.0080
GW 56 1 3.8710 -1.6590 0 3.8710 -1.5010 0 0.0080
GW 57 1 3.8710 -1.5010 0 0.0000 -1.5010 0 0.0080
GW 58 1 0.0000 -1.5010 0 0.0000 -1.3430 0 0.0080
GW 59 1 0.0000 -1.3430 0 3.8710 -1.3430 0 0.0080
GW 60 1 3.8710 -1.3430 0 3.8710 -1.1850 0 0.0080
GW 61 1 0 0 0 0 0 0 0.0080
EX 0 1 1 0 1.0
XQ
EN