FR 0 1 0 0 4200 0
GW 1 1 0.0000 0.0000 0 1.8050 0.0000 0 0.0591
GW 2 1 1.8050 0.0000 0 1.8050 0.1200 0 0.0591
GW 3 1 1.8050 0.1200 0 0.0000 0.1200 0 0.0591
GW 4 1 0.0000 0.1200 0 0.0000 0.2400 0 0.0591
GW 5 1 0.0000 0.2400 0 1.8050 0.2400 0 0.0591
GW 6 1 0.0000 0.0000 0 1.8050 0.0000 0 0.0591
GW 7 1 1.8050 0.0000 0 1.8050 -0.1200 0 0.0591
GW 8 1 1.8050 -0.1200 0 0.0000 -0.1200 0 0.0591
GW 9 1 0.0000 -0.1200 0 0.0000 -0.2400 0 0.0591
GW 10 1 0.0000 -0.2400 0 1.8050 -0.2400 0 0.0591
GW 11 1 0 0 0 0 0 0 0.0591
GW 101 1 0.0000 0.0000 0 1.8050 0.0000 0 0.0394
GW 102 1 1.8050 0.0000 0 1.8050 0.1200 0 0.0394
GW 103 1 1.8050 0.1200 0 0.0000 0.1200 0 0.0394
GW 104 1 0.0000 0.1200 0 0.0000 0.2400 0 0.0394
GW 105 1 0.0000 0.2400 0 1.8050 0.2400 0 0.0394
GW 106 1 0.0000 0.0000 0 1.8050 0.0000 0 0.0394
GW 107 1 1.8050 0.0000 0 1.8050 -0.1200 0 0.0394
GW 108 1 1.8050 -0.1200 0 0.0000 -0.1200 0 0.0394
GW 109 1 0.0000 -0.1200 0 0.0000 -0.2400 0 0.0394
GW 110 1 0.0000 -0.2400 0 1.8050 -0.2400 0 0.0394
GW 111 1 0 0 0 0 0 0 0.0394
GW 201 1 0.0000 0.0000 0 1.8050 0.0000 0 0.0197
GW 202 1 1.8050 0.0000 0 1.8050 0.1200 0 0.0197
GW 203 1 1.8050 0.1200 0 0.0000 0.1200 0 0.0197
GW 204 1 0.0000 0.1200 0 0.0000 0.2400 0 0.0197
GW 205 1 0.0000 0.2400 0 1.8050 0.2400 0 0.0197
GW 206 1 0.0000 0.0000 0 1.8050 0.0000 0 0.0197
GW 207 1 1.8050 0.0000 0 1.8050 -0.1200 0 0.0197
GW 208 1 1.8050 -0.1200 0 0.0000 -0.1200 0 0.0197
GW 209 1 0.0000 -0.1200 0 0.0000 -0.2400 0 0.0197
GW 210 1 0.0000 -0.2400 0 1.8050 -0.2400 0 0.0197
GW 211 1 0 0 0 0 0 0 0.0197
EX 0 1 1 0 1.0
XQ
EN