FR 0 1 0 0 470 0
GW 1 1 0.0 0.0 0 -0.8 0.0 0 0.0100
GW 2 1 -0.8 0.0 0 -0.8 0.02 0 0.0100
GW 3 1 -0.8 0.02 0 0.0 0.02 0 0.0100
GW 4 1 0.0 0.02 0 0.0 0.0 0 0.0100
GW 5 1 0.0 0.0 0 -0.8 0.0 0 0.0100
GW 6 1 -0.8 0.0 0 -0.8 0.02 0 0.0100
GW 7 1 -0.8 0.02 0 0.0 0.02 0 0.0100
GW 8 1 0.0 0.02 0 0.0 0.0 0 0.0100
GW 9 1 0.0 0.0 0 -0.8 0.0 0 0.0100
GW 10 1 -0.8 0.0 0 -0.8 0.02 0 0.0100
GW 11 1 -0.8 0.02 0 0.0 0.02 0 0.0100
GW 12 1 0.0 0.02 0 0.0 0.0 0 0.0100
GW 13 1 0.0 0.0 0 -0.8 0.0 0 0.0100
GW 14 1 -0.8 0.0 0 -0.8 0.02 0 0.0100
GW 15 1 -0.8 0.02 0 0.0 0.02 0 0.0100
GW 16 1 0.0 0.0 0 0.8 0.0 0 0.0100
GW 17 1 0.8 0.0 0 0.8 0.02 0 0.0100
GW 18 1 0.8 0.02 0 0.0 0.02 0 0.0100
GW 19 1 0.0 0.02 0 0.0 0.0 0 0.0100
GW 20 1 0.0 0.0 0 0.8 0.0 0 0.0100
GW 21 1 0.8 0.0 0 0.8 0.02 0 0.0100
GW 22 1 0.8 0.02 0 0.0 0.02 0 0.0100
GW 23 1 0.0 0.02 0 0.0 0.0 0 0.0100
GW 24 1 0.0 0.0 0 0.8 0.0 0 0.0100
GW 25 1 0.8 0.0 0 0.8 0.02 0 0.0100
GW 26 1 0.8 0.02 0 0.0 0.02 0 0.0100
GW 27 1 0.0 0.02 0 0.0 0.0 0 0.0100
GW 28 1 0.0 0.0 0 0.8 0.0 0 0.0100
GW 29 1 0.8 0.0 0 0.8 0.02 0 0.0100
GW 30 1 0.8 0.02 0 0.0 0.02 0 0.0100
GW 101 1 0.5865113035966114 0.0 0 -0.48018869640338857 0.0 0 0.0100
GW 102 1 -0.48018869640338857 0.0 0 -0.48018869640338857 0.02 0 0.0100
GW 103 1 -0.48018869640338857 0.02 0 0.5865113035966114 0.02 0 0.0100
GW 104 1 0.5865113035966114 0.02 0 0.5865113035966114 0.0 0 0.0100
GW 105 1 0.5865113035966114 0.0 0 -0.48018869640338857 0.0 0 0.0100
GW 106 1 -0.48018869640338857 0.0 0 -0.48018869640338857 0.02 0 0.0100
GW 107 1 -0.48018869640338857 0.02 0 0.5865113035966114 0.02 0 0.0100
GW 108 1 0.5865113035966114 0.0 0 1.6532113035966114 0.0 0 0.0100
GW 109 1 1.6532113035966114 0.0 0 1.6532113035966114 0.02 0 0.0100
GW 110 1 1.6532113035966114 0.02 0 0.5865113035966114 0.02 0 0.0100
GW 111 1 0.5865113035966114 0.02 0 0.5865113035966114 0.0 0 0.0100
GW 112 1 0.5865113035966114 0.0 0 1.6532113035966114 0.0 0 0.0100
GW 113 1 1.6532113035966114 0.0 0 1.6532113035966114 0.02 0 0.0100
GW 114 1 1.6532113035966114 0.02 0 0.5865113035966114 0.02 0 0.0100
GW 201 1 0.9285028516823145 0.0 0 -0.13819714831768548 0.0 0 0.0100
GW 202 1 -0.13819714831768548 0.0 0 -0.13819714831768548 0.02 0 0.0100
GW 203 1 -0.13819714831768548 0.02 0 0.9285028516823145 0.02 0 0.0100
GW 204 1 0.9285028516823145 0.02 0 0.9285028516823145 0.0 0 0.0100
GW 205 1 0.9285028516823145 0.0 0 -0.13819714831768548 0.0 0 0.0100
GW 206 1 -0.13819714831768548 0.0 0 -0.13819714831768548 0.02 0 0.0100
GW 207 1 -0.13819714831768548 0.02 0 0.9285028516823145 0.02 0 0.0100
GW 208 1 0.9285028516823145 0.0 0 1.9952028516823144 0.0 0 0.0100
GW 209 1 1.9952028516823144 0.0 0 1.9952028516823144 0.02 0 0.0100
GW 210 1 1.9952028516823144 0.02 0 0.9285028516823145 0.02 0 0.0100
GW 211 1 0.9285028516823145 0.02 0 0.9285028516823145 0.0 0 0.0100
GW 212 1 0.9285028516823145 0.0 0 1.9952028516823144 0.0 0 0.0100
GW 213 1 1.9952028516823144 0.0 0 1.9952028516823144 0.02 0 0.0100
GW 214 1 1.9952028516823144 0.02 0 0.9285028516823145 0.02 0 0.0100
GW 1300 1 -0.0500 0 0 0.0500 0 0 0.0100
GW 1301 1 0.0500 0 0 0.2000 0 0 0.0100
GW 1302 1 -0.0500 0 0 -0.2000 0 0 0.0100
GW 2400 1 0 0 0 1.1285 0 0 0.0075
GW 2401 1 0.0000 0 0 0.0000 0.1 0 0.0075
GW 2402 1 0.5865 0 0 0.5865 0.1 0 0.0075
GW 2403 1 0.9285 0 0 0.9285 0.1 0 0.0075
EX 0 1 1 0 1.0
XQ
EN